omf/solvers/opendss/EPRI-K1.clean.dss


!!!master.dss
clear
new object=circuit.eprik1


! redirect vsource.dss
! redirect k21_feeder\branches.dss
! redirect k21_feeder\transformers.dss
! redirect k21_feeder\loads.dss
! redirect k21_feeder\capacitors.dss
! makebuslist
! redirect busvoltagebases.dss ! set voltage bases
! buscoords buscoords.dss
! giscoords giscoords.dss


!!!loadshape.dss
new object=loadshape.default npts=24 interval=1 mult=[0.677,0.6256,0.6087,0.5833,0.58028,0.6025,0.657,0.7477,0.832,0.88,0.94,0.989,0.985,0.98,0.9898,0.999,1,0.958,0.936,0.913,0.876,0.876,0.828,0.756]
new object=loadshape.k21_a npts=1 interval=1 mult=[1] action=normalize
new object=loadshape.k21_b npts=1 interval=1 mult=[1] action=normalize
new object=loadshape.k21_c npts=1 interval=1 mult=[1] action=normalize
new object=loadshape.k21_abc npts=1 interval=1 mult=[1] action=normalize
new object=loadshape.aggloadprofilek22 npts=1 interval=1 mult=[1] action=normalize
new object=loadshape.pv_1mw npts=1 interval=1 mult=[1] action=normalize


!!!vsource.dss
edit object=vsource.source pu=1.00 bus1=trans_equiv basekv=69 r1=0.80626 x1=7.8138 r0=0.91631 x0=14.557


!!!transformer.dss
new object=transformer.t2 phases=3 windings=2 buses=[trans_equiv.1.2.3,k_lsb.1.2.3.4] conns=[delta,wye] kvs=[66,13.8] kvas=[12000,12000] xhl=7.904196 buses=[trans_equiv.1.2.3,k_lsb.1.2.3.4] conns=[delta,wye] kvs=[66,13.8] kvas=[12000,12000] taps=[1,0.95625] wdg=1 %r=0.2500417 rdcohms=0.7715036 wdg=2 %r=0.2500417 rdcohms=0.01124312 mintap=0.9 maxtap=1.1


!!!transformers.dss
new object=transformer.10548994-sc phases=1 buses=[10548994.3,sec_10548994.3] conns=[wye,wye] kvs=[7.62,0.24] kvas=[15,15] taps=[1,1] wdg=1 %r=0.38195 rdcohms=12.56736 wdg=2 %r=0.38195 rdcohms=0.01246685 %loadloss=0.7639 %noloadloss=0.0851 xhl=2.1 emerghkva=21
new object=transformer.10548977-sa phases=1 buses=[10548977.1,sec_10548977.1] conns=[wye,wye] kvs=[7.62,0.24] kvas=[15,15] taps=[1,1] wdg=1 %r=0.38195 rdcohms=12.56736 wdg=2 %r=0.38195 rdcohms=0.01246685 %loadloss=0.7639 %noloadloss=0.0851 xhl=2.1 emerghkva=21
new object=transformer.34095590-sa phases=1 buses=[34095590.1,sec_34095590.1] conns=[wye,wye] kvs=[7.62,0.24] kvas=[37.5,37.5] taps=[1,1] wdg=1 %r=0.504 rdcohms=6.633277 wdg=2 %r=0.504 rdcohms=0.006580224 %loadloss=1.008 %noloadloss=0.23 xhl=1.803 emerghkva=51.8
new object=transformer.10548907-sb phases=1 buses=[10548907.2,sec_10548907.2] conns=[wye,wye] kvs=[7.62,0.24] kvas=[37.5,37.5] taps=[1,1] wdg=1 %r=0.4055 rdcohms=5.336893 wdg=2 %r=0.4055 rdcohms=0.005294208 %loadloss=0.811 %noloadloss=0.184 xhl=1.765 emerghkva=51.8
new object=transformer.34084616-sa phases=1 buses=[34084616.1,sec_34084616.1] conns=[wye,wye] kvs=[7.62,0.24] kvas=[50,50] taps=[1,1] wdg=1 %r=0.369 rdcohms=3.64238 wdg=2 %r=0.369 rdcohms=0.003613248 %loadloss=0.738 %noloadloss=0.1987 xhl=1.7532 emerghkva=70
new object=transformer.34095591-sc phases=1 buses=[34095591.3,sec_34095591.3] conns=[wye,wye] kvs=[7.62,0.24] kvas=[25,25] taps=[1,1] wdg=1 %r=0.38195 rdcohms=7.540417 wdg=2 %r=0.38195 rdcohms=0.007480109 %loadloss=0.7639 %noloadloss=0.0851 xhl=2.1 emerghkva=35
new object=transformer.10548956-sc phases=1 buses=[10548956.3,sec_10548956.3] conns=[wye,wye] kvs=[7.62,0.24] kvas=[25,25] taps=[1,1] wdg=1 %r=0.504 rdcohms=9.949916 wdg=2 %r=0.504 rdcohms=0.009870336 %loadloss=1.008 %noloadloss=0.23 xhl=1.803 emerghkva=35
new object=transformer.10548954-sc phases=1 buses=[10548954.3,sec_10548954.3] conns=[wye,wye] kvs=[7.62,0.24] kvas=[15,15] taps=[1,1] wdg=1 %r=0.504 rdcohms=16.58319 wdg=2 %r=0.504 rdcohms=0.01645056 %loadloss=1.008 %noloadloss=0.23 xhl=1.803 emerghkva=21
new object=transformer.10548910-sb phases=1 buses=[10548910.2,sec_10548910.2] conns=[wye,wye] kvs=[7.62,0.24] kvas=[25,25] taps=[1,1] wdg=1 %r=0.504 rdcohms=9.949916 wdg=2 %r=0.504 rdcohms=0.009870336 %loadloss=1.008 %noloadloss=0.23 xhl=1.803 emerghkva=35
new object=transformer.34095643-sa phases=1 buses=[34095643.1,sec_34095643.1] conns=[wye,wye] kvs=[7.62,0.24] kvas=[15,15] taps=[1,1] wdg=1 %r=0.504 rdcohms=16.58319 wdg=2 %r=0.504 rdcohms=0.01645056 %loadloss=1.008 %noloadloss=0.23 xhl=1.803 emerghkva=21
new object=transformer.10548927-sc phases=1 buses=[10548927.3,sec_10548927.3] conns=[wye,wye] kvs=[7.62,0.24] kvas=[15,15] taps=[1,1] wdg=1 %r=0.504 rdcohms=16.58319 wdg=2 %r=0.504 rdcohms=0.01645056 %loadloss=1.008 %noloadloss=0.23 xhl=1.803 emerghkva=21
new object=transformer.20409718-sc phases=1 buses=[20409718.3,sec_20409718.3] conns=[wye,wye] kvs=[7.62,0.24] kvas=[15,15] taps=[1,1] wdg=1 %r=0.504 rdcohms=16.58319 wdg=2 %r=0.504 rdcohms=0.01645056 %loadloss=1.008 %noloadloss=0.23 xhl=1.803 emerghkva=21
new object=transformer.10548938-sc phases=1 buses=[10548938.3,sec_10548938.3] conns=[wye,wye] kvs=[7.62,0.24] kvas=[37.5,37.5] taps=[1,1] wdg=1 %r=0.504 rdcohms=6.633277 wdg=2 %r=0.504 rdcohms=0.006580224 %loadloss=1.008 %noloadloss=0.23 xhl=1.803 emerghkva=51.8
new object=transformer.20416460-sa phases=1 buses=[20416460.1,sec_20416460.1] conns=[wye,wye] kvs=[7.62,0.24] kvas=[50,50] taps=[1,1] wdg=1 %r=0.4055 rdcohms=4.002669 wdg=2 %r=0.4055 rdcohms=0.003970656 %loadloss=0.811 %noloadloss=0.184 xhl=1.765 emerghkva=70
new object=transformer.34057718-sa phases=1 buses=[34057718.1,sec_34057718.1] conns=[wye,wye] kvs=[7.62,0.24] kvas=[50,50] taps=[1,1] wdg=1 %r=0.4055 rdcohms=4.002669 wdg=2 %r=0.4055 rdcohms=0.003970656 %loadloss=0.811 %noloadloss=0.184 xhl=1.765 emerghkva=70
new object=transformer.10548953-sa phases=1 buses=[10548953.1,sec_10548953.1] conns=[wye,wye] kvs=[7.62,0.24] kvas=[37.5,37.5] taps=[1,1] wdg=1 %r=0.38195 rdcohms=5.026945 wdg=2 %r=0.38195 rdcohms=0.004986739 %loadloss=0.7639 %noloadloss=0.0851 xhl=2.1 emerghkva=51.8
new object=transformer.10548961-sb phases=1 buses=[10548961.2,sec_10548961.2] conns=[wye,wye] kvs=[7.62,0.24] kvas=[10,10] taps=[1,1] wdg=1 %r=0.5765 rdcohms=28.45301 wdg=2 %r=0.5765 rdcohms=0.02822544 %loadloss=1.153 %noloadloss=0.318 xhl=1.888 emerghkva=14
new object=transformer.10548911-sa phases=1 buses=[10548911.1,sec_10548911.1] conns=[wye,wye] kvs=[7.62,0.24] kvas=[50,50] taps=[1,1] wdg=1 %r=0.369 rdcohms=3.64238 wdg=2 %r=0.369 rdcohms=0.003613248 %loadloss=0.738 %noloadloss=0.1987 xhl=1.7532 emerghkva=70
new object=transformer.34095651-sa phases=1 buses=[34095651.1,sec_34095651.1] conns=[wye,wye] kvs=[7.62,0.24] kvas=[10,10] taps=[1,1] wdg=1 %r=0.5765 rdcohms=28.45301 wdg=2 %r=0.5765 rdcohms=0.02822544 %loadloss=1.153 %noloadloss=0.318 xhl=1.888 emerghkva=14
new object=transformer.34090003-sc phases=1 buses=[34090003.3,sec_34090003.3] conns=[wye,wye] kvs=[7.62,0.24] kvas=[15,15] taps=[1,1] wdg=1 %r=0.369 rdcohms=12.14127 wdg=2 %r=0.369 rdcohms=0.01204416 %loadloss=0.738 %noloadloss=0.1987 xhl=1.7532 emerghkva=21
new object=transformer.10548979-sa phases=1 buses=[10548979.1,sec_10548979.1] conns=[wye,wye] kvs=[7.62,0.24] kvas=[38,38] taps=[1,1] wdg=1 %r=0.4155 rdcohms=5.396551 wdg=2 %r=0.4155 rdcohms=0.005353389 %loadloss=0.831 %noloadloss=0.219 xhl=1.686 emerghkva=53.2
new object=transformer.10548983-sa phases=1 buses=[10548983.1,sec_10548983.1] conns=[wye,wye] kvs=[7.62,0.24] kvas=[15,15] taps=[1,1] wdg=1 %r=0.38195 rdcohms=12.56736 wdg=2 %r=0.38195 rdcohms=0.01246685 %loadloss=0.7639 %noloadloss=0.0851 xhl=2.1 emerghkva=21
new object=transformer.34095588-sa phases=1 buses=[34095588.1,sec_34095588.1] conns=[wye,wye] kvs=[7.62,0.24] kvas=[37.5,37.5] taps=[1,1] wdg=1 %r=0.504 rdcohms=6.633277 wdg=2 %r=0.504 rdcohms=0.006580224 %loadloss=1.008 %noloadloss=0.23 xhl=1.803 emerghkva=51.8
new object=transformer.10548981-sa phases=1 buses=[10548981.1,sec_10548981.1] conns=[wye,wye] kvs=[7.62,0.24] kvas=[25,25] taps=[1,1] wdg=1 %r=0.38195 rdcohms=7.540417 wdg=2 %r=0.38195 rdcohms=0.007480109 %loadloss=0.7639 %noloadloss=0.0851 xhl=2.1 emerghkva=35
new object=transformer.10548982-sa phases=1 buses=[10548982.1,sec_10548982.1] conns=[wye,wye] kvs=[7.62,0.24] kvas=[75,75] taps=[1,1] wdg=1 %r=0.3745 rdcohms=2.464447 wdg=2 %r=0.3745 rdcohms=0.002444736 %loadloss=0.749 %noloadloss=0.171 xhl=1.773 emerghkva=105
new object=transformer.34090004-sabc phases=3 buses=[34090004,sec_34090004] conns=[wye,wye] kvs=[13.2,0.48] kvas=[45,45] taps=[1,1] wdg=1 %r=0.504 rdcohms=5.529216 wdg=2 %r=0.504 rdcohms=0.00731136 %loadloss=1.008 %noloadloss=0.23 xhl=1.803 emerghkva=21
new object=transformer.10548965-sabc phases=3 buses=[10548965,sec_10548965] conns=[wye,wye] kvs=[13.2,0.48] kvas=[75,75] taps=[1,1] wdg=1 %r=0.38195 rdcohms=2.514148 wdg=2 %r=0.38195 rdcohms=0.003324493 %loadloss=0.7639 %noloadloss=0.0851 xhl=2.1 emerghkva=35
new object=transformer.10559591-sb phases=1 buses=[10559591.2,sec_10559591.2] conns=[wye,wye] kvs=[7.62,0.24] kvas=[15,15] taps=[1,1] wdg=1 %r=0.38195 rdcohms=12.56736 wdg=2 %r=0.38195 rdcohms=0.01246685 %loadloss=0.7639 %noloadloss=0.0851 xhl=2.1 emerghkva=21
new object=transformer.34095654-sb phases=1 buses=[34095654.2,sec_34095654.2] conns=[wye,wye] kvs=[7.62,0.24] kvas=[37.5,37.5] taps=[1,1] wdg=1 %r=0.369 rdcohms=4.856506 wdg=2 %r=0.369 rdcohms=0.004817664 %loadloss=0.738 %noloadloss=0.1987 xhl=1.7532 emerghkva=51.8
new object=transformer.10559784-sb phases=1 buses=[10559784.2,sec_10559784.2] conns=[wye,wye] kvs=[7.62,0.24] kvas=[50,50] taps=[1,1] wdg=1 %r=0.4055 rdcohms=4.002669 wdg=2 %r=0.4055 rdcohms=0.003970656 %loadloss=0.811 %noloadloss=0.184 xhl=1.765 emerghkva=70
new object=transformer.34084663-sb phases=1 buses=[34084663.2,sec_34084663.2] conns=[wye,wye] kvs=[7.62,0.24] kvas=[50,50] taps=[1,1] wdg=1 %r=0.4055 rdcohms=4.002669 wdg=2 %r=0.4055 rdcohms=0.003970656 %loadloss=0.811 %noloadloss=0.184 xhl=1.765 emerghkva=70
new object=transformer.34084661-sb phases=1 buses=[34084661.2,sec_34084661.2] conns=[wye,wye] kvs=[7.62,0.24] kvas=[50,50] taps=[1,1] wdg=1 %r=0.4055 rdcohms=4.002669 wdg=2 %r=0.4055 rdcohms=0.003970656 %loadloss=0.811 %noloadloss=0.184 xhl=1.765 emerghkva=70
new object=transformer.10559783-sb phases=1 buses=[10559783.2,sec_10559783.2] conns=[wye,wye] kvs=[7.62,0.24] kvas=[25,25] taps=[1,1] wdg=1 %r=0.504 rdcohms=9.949916 wdg=2 %r=0.504 rdcohms=0.009870336 %loadloss=1.008 %noloadloss=0.23 xhl=1.803 emerghkva=35
new object=transformer.10560281-sb phases=1 buses=[10560281.2,sec_10560281.2] conns=[wye,wye] kvs=[7.62,0.24] kvas=[25,25] taps=[1,1] wdg=1 %r=0.504 rdcohms=9.949916 wdg=2 %r=0.504 rdcohms=0.009870336 %loadloss=1.008 %noloadloss=0.23 xhl=1.803 emerghkva=35
new object=transformer.10560338-sb phases=1 buses=[10560338.2,sec_10560338.2] conns=[wye,wye] kvs=[7.62,0.24] kvas=[25,25] taps=[1,1] wdg=1 %r=0.504 rdcohms=9.949916 wdg=2 %r=0.504 rdcohms=0.009870336 %loadloss=1.008 %noloadloss=0.23 xhl=1.803 emerghkva=35
new object=transformer.10560337-sb phases=1 buses=[10560337.2,sec_10560337.2] conns=[wye,wye] kvs=[7.62,0.24] kvas=[15,15] taps=[1,1] wdg=1 %r=0.504 rdcohms=16.58319 wdg=2 %r=0.504 rdcohms=0.01645056 %loadloss=1.008 %noloadloss=0.23 xhl=1.803 emerghkva=21
new object=transformer.34084666-sb phases=1 buses=[34084666.2,sec_34084666.2] conns=[wye,wye] kvs=[7.62,0.24] kvas=[25,25] taps=[1,1] wdg=1 %r=0.38195 rdcohms=7.540417 wdg=2 %r=0.38195 rdcohms=0.007480109 %loadloss=0.7639 %noloadloss=0.0851 xhl=2.1 emerghkva=35
new object=transformer.10560401-sb phases=1 buses=[10560401.2,sec_10560401.2] conns=[wye,wye] kvs=[7.62,0.24] kvas=[15,15] taps=[1,1] wdg=1 %r=0.504 rdcohms=16.58319 wdg=2 %r=0.504 rdcohms=0.01645056 %loadloss=1.008 %noloadloss=0.23 xhl=1.803 emerghkva=21
new object=transformer.34095650-sb phases=1 buses=[34095650.2,sec_34095650.2] conns=[wye,wye] kvs=[7.62,0.24] kvas=[25,25] taps=[1,1] wdg=1 %r=0.38195 rdcohms=7.540417 wdg=2 %r=0.38195 rdcohms=0.007480109 %loadloss=0.7639 %noloadloss=0.0851 xhl=2.1 emerghkva=35
new object=transformer.34084664-sb phases=1 buses=[34084664.2,sec_34084664.2] conns=[wye,wye] kvs=[7.62,0.24] kvas=[50,50] taps=[1,1] wdg=1 %r=0.4055 rdcohms=4.002669 wdg=2 %r=0.4055 rdcohms=0.003970656 %loadloss=0.811 %noloadloss=0.184 xhl=1.765 emerghkva=70
new object=transformer.34084665-sb phases=1 buses=[34084665.2,sec_34084665.2] conns=[wye,wye] kvs=[7.62,0.24] kvas=[37.5,37.5] taps=[1,1] wdg=1 %r=0.38195 rdcohms=5.026945 wdg=2 %r=0.38195 rdcohms=0.004986739 %loadloss=0.7639 %noloadloss=0.0851 xhl=2.1 emerghkva=51.8
new object=transformer.10559592-sb phases=1 buses=[10559592.2,sec_10559592.2] conns=[wye,wye] kvs=[7.62,0.24] kvas=[25,25] taps=[1,1] wdg=1 %r=0.504 rdcohms=9.949916 wdg=2 %r=0.504 rdcohms=0.009870336 %loadloss=1.008 %noloadloss=0.23 xhl=1.803 emerghkva=35
new object=transformer.10560402-sb phases=1 buses=[10560402.2,sec_10560402.2] conns=[wye,wye] kvs=[7.62,0.24] kvas=[15,15] taps=[1,1] wdg=1 %r=0.38195 rdcohms=12.56736 wdg=2 %r=0.38195 rdcohms=0.01246685 %loadloss=0.7639 %noloadloss=0.0851 xhl=2.1 emerghkva=21
new object=transformer.10548950-sb phases=1 buses=[10548950.2,sec_10548950.2] conns=[wye,wye] kvs=[7.62,0.24] kvas=[15,15] taps=[1,1] wdg=1 %r=0.504 rdcohms=16.58319 wdg=2 %r=0.504 rdcohms=0.01645056 %loadloss=1.008 %noloadloss=0.23 xhl=1.803 emerghkva=21
new object=transformer.34085352-sb phases=1 buses=[34085352.2,sec_34085352.2] conns=[wye,wye] kvs=[7.62,0.24] kvas=[15,15] taps=[1,1] wdg=1 %r=0.38195 rdcohms=12.56736 wdg=2 %r=0.38195 rdcohms=0.01246685 %loadloss=0.7639 %noloadloss=0.0851 xhl=2.1 emerghkva=21
new object=transformer.34090753-sa phases=1 buses=[34090753.1,sec_34090753.1] conns=[wye,wye] kvs=[7.62,0.24] kvas=[15,15] taps=[1,1] wdg=1 %r=0.504 rdcohms=16.58319 wdg=2 %r=0.504 rdcohms=0.01645056 %loadloss=1.008 %noloadloss=0.23 xhl=1.803 emerghkva=21
new object=transformer.10548941-sc phases=1 buses=[10548941.3,sec_10548941.3] conns=[wye,wye] kvs=[7.62,0.24] kvas=[15,15] taps=[1,1] wdg=1 %r=0.38195 rdcohms=12.56736 wdg=2 %r=0.38195 rdcohms=0.01246685 %loadloss=0.7639 %noloadloss=0.0851 xhl=2.1 emerghkva=21
new object=transformer.34085402-sb phases=1 buses=[34085402.2,sec_34085402.2] conns=[wye,wye] kvs=[7.62,0.24] kvas=[15,15] taps=[1,1] wdg=1 %r=0.38195 rdcohms=12.56736 wdg=2 %r=0.38195 rdcohms=0.01246685 %loadloss=0.7639 %noloadloss=0.0851 xhl=2.1 emerghkva=21
new object=transformer.10548931-sa phases=1 buses=[10548931.1,sec_10548931.1] conns=[wye,wye] kvs=[7.62,0.24] kvas=[25,25] taps=[1,1] wdg=1 %r=0.38195 rdcohms=7.540417 wdg=2 %r=0.38195 rdcohms=0.007480109 %loadloss=0.7639 %noloadloss=0.0851 xhl=2.1 emerghkva=35
new object=transformer.10549239-sb phases=1 buses=[10549239.2,sec_10549239.2] conns=[wye,wye] kvs=[7.62,0.24] kvas=[15,15] taps=[1,1] wdg=1 %r=0.504 rdcohms=16.58319 wdg=2 %r=0.504 rdcohms=0.01645056 %loadloss=1.008 %noloadloss=0.23 xhl=1.803 emerghkva=21
new object=transformer.10549241-sb phases=1 buses=[10549241.2,sec_10549241.2] conns=[wye,wye] kvs=[7.62,0.24] kvas=[25,25] taps=[1,1] wdg=1 %r=0.38195 rdcohms=7.540417 wdg=2 %r=0.38195 rdcohms=0.007480109 %loadloss=0.7639 %noloadloss=0.0851 xhl=2.1 emerghkva=35
new object=transformer.10549232-sb phases=1 buses=[10549232.2,sec_10549232.2] conns=[wye,wye] kvs=[7.62,0.24] kvas=[15,15] taps=[1,1] wdg=1 %r=0.369 rdcohms=12.14127 wdg=2 %r=0.369 rdcohms=0.01204416 %loadloss=0.738 %noloadloss=0.1987 xhl=1.7532 emerghkva=21
new object=transformer.10559558-sa phases=1 buses=[10559558.1,sec_10559558.1] conns=[wye,wye] kvs=[7.62,0.24] kvas=[50,50] taps=[1,1] wdg=1 %r=0.369 rdcohms=3.64238 wdg=2 %r=0.369 rdcohms=0.003613248 %loadloss=0.738 %noloadloss=0.1987 xhl=1.7532 emerghkva=70
new object=transformer.10559574-sa phases=1 buses=[10559574.1,sec_10559574.1] conns=[wye,wye] kvs=[7.62,0.24] kvas=[25,25] taps=[1,1] wdg=1 %r=0.504 rdcohms=9.949916 wdg=2 %r=0.504 rdcohms=0.009870336 %loadloss=1.008 %noloadloss=0.23 xhl=1.803 emerghkva=35
new object=transformer.34097394-sa phases=1 buses=[34097394.1,sec_34097394.1] conns=[wye,wye] kvs=[7.62,0.24] kvas=[25,25] taps=[1,1] wdg=1 %r=0.504 rdcohms=9.949916 wdg=2 %r=0.504 rdcohms=0.009870336 %loadloss=1.008 %noloadloss=0.23 xhl=1.803 emerghkva=35
new object=transformer.34097395-sa phases=1 buses=[34097395.1,sec_34097395.1] conns=[wye,wye] kvs=[7.62,0.24] kvas=[25,25] taps=[1,1] wdg=1 %r=0.38195 rdcohms=7.540417 wdg=2 %r=0.38195 rdcohms=0.007480109 %loadloss=0.7639 %noloadloss=0.0851 xhl=2.1 emerghkva=35
new object=transformer.10559507-sa phases=1 buses=[10559507.1,sec_10559507.1] conns=[wye,wye] kvs=[7.62,0.24] kvas=[25,25] taps=[1,1] wdg=1 %r=0.38195 rdcohms=7.540417 wdg=2 %r=0.38195 rdcohms=0.007480109 %loadloss=0.7639 %noloadloss=0.0851 xhl=2.1 emerghkva=35
new object=transformer.34085286-sb phases=1 buses=[34085286.2,sec_34085286.2] conns=[wye,wye] kvs=[7.62,0.24] kvas=[25,25] taps=[1,1] wdg=1 %r=0.38195 rdcohms=7.540417 wdg=2 %r=0.38195 rdcohms=0.007480109 %loadloss=0.7639 %noloadloss=0.0851 xhl=2.1 emerghkva=35
new object=transformer.10549226-sc phases=1 buses=[10549226.3,sec_10549226.3] conns=[wye,wye] kvs=[7.62,0.24] kvas=[25,25] taps=[1,1] wdg=1 %r=0.504 rdcohms=9.949916 wdg=2 %r=0.504 rdcohms=0.009870336 %loadloss=1.008 %noloadloss=0.23 xhl=1.803 emerghkva=35
new object=transformer.34095658-sc phases=1 buses=[34095658.3,sec_34095658.3] conns=[wye,wye] kvs=[7.62,0.24] kvas=[15,15] taps=[1,1] wdg=1 %r=0.504 rdcohms=16.58319 wdg=2 %r=0.504 rdcohms=0.01645056 %loadloss=1.008 %noloadloss=0.23 xhl=1.803 emerghkva=21
new object=transformer.10549248-sc phases=1 buses=[10549248.3,sec_10549248.3] conns=[wye,wye] kvs=[7.62,0.24] kvas=[15,15] taps=[1,1] wdg=1 %r=0.504 rdcohms=16.58319 wdg=2 %r=0.504 rdcohms=0.01645056 %loadloss=1.008 %noloadloss=0.23 xhl=1.803 emerghkva=21
new object=transformer.34085952-sc phases=1 buses=[34085952.3,sec_34085952.3] conns=[wye,wye] kvs=[7.62,0.24] kvas=[25,25] taps=[1,1] wdg=1 %r=0.504 rdcohms=9.949916 wdg=2 %r=0.504 rdcohms=0.009870336 %loadloss=1.008 %noloadloss=0.23 xhl=1.803 emerghkva=35
new object=transformer.10541616-sc phases=1 buses=[10541616.3,sec_10541616.3] conns=[wye,wye] kvs=[7.62,0.24] kvas=[15,15] taps=[1,1] wdg=1 %r=0.38195 rdcohms=12.56736 wdg=2 %r=0.38195 rdcohms=0.01246685 %loadloss=0.7639 %noloadloss=0.0851 xhl=2.1 emerghkva=21
new object=transformer.34085953-sc phases=1 buses=[34085953.3,sec_34085953.3] conns=[wye,wye] kvs=[7.62,0.24] kvas=[25,25] taps=[1,1] wdg=1 %r=0.504 rdcohms=9.949916 wdg=2 %r=0.504 rdcohms=0.009870336 %loadloss=1.008 %noloadloss=0.23 xhl=1.803 emerghkva=35
new object=transformer.10549259-sc phases=1 buses=[10549259.3,sec_10549259.3] conns=[wye,wye] kvs=[7.62,0.24] kvas=[15,15] taps=[1,1] wdg=1 %r=0.504 rdcohms=16.58319 wdg=2 %r=0.504 rdcohms=0.01645056 %loadloss=1.008 %noloadloss=0.23 xhl=1.803 emerghkva=21
new object=transformer.10549255-sc phases=1 buses=[10549255.3,sec_10549255.3] conns=[wye,wye] kvs=[7.62,0.24] kvas=[25,25] taps=[1,1] wdg=1 %r=0.504 rdcohms=9.949916 wdg=2 %r=0.504 rdcohms=0.009870336 %loadloss=1.008 %noloadloss=0.23 xhl=1.803 emerghkva=35
new object=transformer.34095667-sc phases=1 buses=[34095667.3,sec_34095667.3] conns=[wye,wye] kvs=[7.62,0.24] kvas=[25,25] taps=[1,1] wdg=1 %r=0.38195 rdcohms=7.540417 wdg=2 %r=0.38195 rdcohms=0.007480109 %loadloss=0.7639 %noloadloss=0.0851 xhl=2.1 emerghkva=35
new object=transformer.10549258-sc phases=1 buses=[10549258.3,sec_10549258.3] conns=[wye,wye] kvs=[7.62,0.24] kvas=[15,15] taps=[1,1] wdg=1 %r=0.38195 rdcohms=12.56736 wdg=2 %r=0.38195 rdcohms=0.01246685 %loadloss=0.7639 %noloadloss=0.0851 xhl=2.1 emerghkva=21
new object=transformer.34085468-sc phases=1 buses=[34085468.3,sec_34085468.3] conns=[wye,wye] kvs=[7.62,0.24] kvas=[15,15] taps=[1,1] wdg=1 %r=0.4055 rdcohms=13.34223 wdg=2 %r=0.4055 rdcohms=0.01323552 %loadloss=0.811 %noloadloss=0.184 xhl=1.765 emerghkva=21
new object=transformer.34086806-sc phases=1 buses=[34086806.3,sec_34086806.3] conns=[wye,wye] kvs=[7.62,0.24] kvas=[25,25] taps=[1,1] wdg=1 %r=0.504 rdcohms=9.949916 wdg=2 %r=0.504 rdcohms=0.009870336 %loadloss=1.008 %noloadloss=0.23 xhl=1.803 emerghkva=35
new object=transformer.10523032-sc phases=1 buses=[10523032.3,sec_10523032.3] conns=[wye,wye] kvs=[7.62,0.24] kvas=[15,15] taps=[1,1] wdg=1 %r=0.504 rdcohms=16.58319 wdg=2 %r=0.504 rdcohms=0.01645056 %loadloss=1.008 %noloadloss=0.23 xhl=1.803 emerghkva=21
new object=transformer.34092234-sc phases=1 buses=[34092234.3,sec_34092234.3] conns=[wye,wye] kvs=[7.62,0.24] kvas=[5,5] taps=[1,1] wdg=1 %r=0.38195 rdcohms=37.70209 wdg=2 %r=0.38195 rdcohms=0.03740054 %loadloss=0.7639 %noloadloss=0.0851 xhl=2.1 emerghkva=7
new object=transformer.34092313-sc phases=1 buses=[34092313.3,sec_34092313.3] conns=[wye,wye] kvs=[7.62,0.24] kvas=[15,15] taps=[1,1] wdg=1 %r=0.38195 rdcohms=12.56736 wdg=2 %r=0.38195 rdcohms=0.01246685 %loadloss=0.7639 %noloadloss=0.0851 xhl=2.1 emerghkva=21
new object=transformer.34086805-sc phases=1 buses=[34086805.3,sec_34086805.3] conns=[wye,wye] kvs=[7.62,0.24] kvas=[15,15] taps=[1,1] wdg=1 %r=0.38195 rdcohms=12.56736 wdg=2 %r=0.38195 rdcohms=0.01246685 %loadloss=0.7639 %noloadloss=0.0851 xhl=2.1 emerghkva=21
new object=transformer.34097392-sc phases=1 buses=[34097392.3,sec_34097392.3] conns=[wye,wye] kvs=[7.62,0.24] kvas=[15,15] taps=[1,1] wdg=1 %r=0.504 rdcohms=16.58319 wdg=2 %r=0.504 rdcohms=0.01645056 %loadloss=1.008 %noloadloss=0.23 xhl=1.803 emerghkva=21
new object=transformer.34097393-sc phases=1 buses=[34097393.3,sec_34097393.3] conns=[wye,wye] kvs=[7.62,0.24] kvas=[15,15] taps=[1,1] wdg=1 %r=0.5765 rdcohms=18.96867 wdg=2 %r=0.5765 rdcohms=0.01881696 %loadloss=1.153 %noloadloss=0.318 xhl=1.888 emerghkva=21
new object=transformer.34085489-sc phases=1 buses=[34085489.3,sec_34085489.3] conns=[wye,wye] kvs=[7.62,0.24] kvas=[15,15] taps=[1,1] wdg=1 %r=0.38195 rdcohms=12.56736 wdg=2 %r=0.38195 rdcohms=0.01246685 %loadloss=0.7639 %noloadloss=0.0851 xhl=2.1 emerghkva=21
new object=transformer.10549223-sb phases=1 buses=[10549223.2,sec_10549223.2] conns=[wye,wye] kvs=[7.62,0.24] kvas=[37.5,37.5] taps=[1,1] wdg=1 %r=0.38195 rdcohms=5.026945 wdg=2 %r=0.38195 rdcohms=0.004986739 %loadloss=0.7639 %noloadloss=0.0851 xhl=2.1 emerghkva=51.8
new object=transformer.10549263-sa phases=1 buses=[10549263.1,sec_10549263.1] conns=[wye,wye] kvs=[7.62,0.24] kvas=[25,25] taps=[1,1] wdg=1 %r=0.504 rdcohms=9.949916 wdg=2 %r=0.504 rdcohms=0.009870336 %loadloss=1.008 %noloadloss=0.23 xhl=1.803 emerghkva=35
new object=transformer.10549261-sc phases=1 buses=[10549261.3,sec_10549261.3] conns=[wye,wye] kvs=[7.62,0.24] kvas=[25,25] taps=[1,1] wdg=1 %r=0.504 rdcohms=9.949916 wdg=2 %r=0.504 rdcohms=0.009870336 %loadloss=1.008 %noloadloss=0.23 xhl=1.803 emerghkva=35
new object=transformer.34085490-sc phases=1 buses=[34085490.3,sec_34085490.3] conns=[wye,wye] kvs=[7.62,0.24] kvas=[37.5,37.5] taps=[1,1] wdg=1 %r=0.38195 rdcohms=5.026945 wdg=2 %r=0.38195 rdcohms=0.004986739 %loadloss=0.7639 %noloadloss=0.0851 xhl=2.1 emerghkva=51.8
new object=transformer.10549020-sc phases=1 buses=[10549020.3,sec_10549020.3] conns=[wye,wye] kvs=[7.62,0.24] kvas=[15,15] taps=[1,1] wdg=1 %r=0.4055 rdcohms=13.34223 wdg=2 %r=0.4055 rdcohms=0.01323552 %loadloss=0.811 %noloadloss=0.184 xhl=1.765 emerghkva=21
new object=transformer.10549018-sc phases=1 buses=[10549018.3,sec_10549018.3] conns=[wye,wye] kvs=[7.62,0.24] kvas=[25,25] taps=[1,1] wdg=1 %r=0.38195 rdcohms=7.540417 wdg=2 %r=0.38195 rdcohms=0.007480109 %loadloss=0.7639 %noloadloss=0.0851 xhl=2.1 emerghkva=35
new object=transformer.10555985-sc phases=1 buses=[10555985.3,sec_10555985.3] conns=[wye,wye] kvs=[7.62,0.24] kvas=[25,25] taps=[1,1] wdg=1 %r=0.504 rdcohms=9.949916 wdg=2 %r=0.504 rdcohms=0.009870336 %loadloss=1.008 %noloadloss=0.23 xhl=1.803 emerghkva=35
new object=transformer.20114730-sabc phases=3 buses=[20114730,sec_20114730] conns=[wye,wye] kvs=[13.2,0.48] kvas=[300,300] taps=[1,1] wdg=1 %r=0.3575 rdcohms=0.588302 wdg=2 %r=0.3575 rdcohms=0.00077792 %loadloss=0.715 %noloadloss=0.173 xhl=1.845 emerghkva=140
new object=transformer.34095659-sc phases=1 buses=[34095659.3,sec_34095659.3] conns=[wye,wye] kvs=[7.62,0.24] kvas=[25,25] taps=[1,1] wdg=1 %r=0.504 rdcohms=9.949916 wdg=2 %r=0.504 rdcohms=0.009870336 %loadloss=1.008 %noloadloss=0.23 xhl=1.803 emerghkva=35
new object=transformer.10548968-sa phases=1 buses=[10548968.1,sec_10548968.1] conns=[wye,wye] kvs=[7.62,0.24] kvas=[37.5,37.5] taps=[1,1] wdg=1 %r=0.4055 rdcohms=5.336893 wdg=2 %r=0.4055 rdcohms=0.005294208 %loadloss=0.811 %noloadloss=0.184 xhl=1.765 emerghkva=51.8
new object=transformer.10558215-sc phases=1 buses=[10558215.3,sec_10558215.3] conns=[wye,wye] kvs=[7.62,0.24] kvas=[15,15] taps=[1,1] wdg=1 %r=0.38195 rdcohms=12.56736 wdg=2 %r=0.38195 rdcohms=0.01246685 %loadloss=0.7639 %noloadloss=0.0851 xhl=2.1 emerghkva=21
new object=transformer.34095660-sc phases=1 buses=[34095660.3,sec_34095660.3] conns=[wye,wye] kvs=[7.62,0.24] kvas=[37.5,37.5] taps=[1,1] wdg=1 %r=0.38195 rdcohms=5.026945 wdg=2 %r=0.38195 rdcohms=0.004986739 %loadloss=0.7639 %noloadloss=0.0851 xhl=2.1 emerghkva=51.8
new object=transformer.34085491-sb phases=1 buses=[34085491.2,sec_34085491.2] conns=[wye,wye] kvs=[7.62,0.24] kvas=[37.5,37.5] taps=[1,1] wdg=1 %r=0.38195 rdcohms=5.026945 wdg=2 %r=0.38195 rdcohms=0.004986739 %loadloss=0.7639 %noloadloss=0.0851 xhl=2.1 emerghkva=51.8
new object=transformer.34085462-sb phases=1 buses=[34085462.2,sec_34085462.2] conns=[wye,wye] kvs=[7.62,0.24] kvas=[15,15] taps=[1,1] wdg=1 %r=0.504 rdcohms=16.58319 wdg=2 %r=0.504 rdcohms=0.01645056 %loadloss=1.008 %noloadloss=0.23 xhl=1.803 emerghkva=21
new object=transformer.10549013-sb phases=1 buses=[10549013.2,sec_10549013.2] conns=[wye,wye] kvs=[7.62,0.24] kvas=[37.5,37.5] taps=[1,1] wdg=1 %r=0.4055 rdcohms=5.336893 wdg=2 %r=0.4055 rdcohms=0.005294208 %loadloss=0.811 %noloadloss=0.184 xhl=1.765 emerghkva=51.8
new object=transformer.10549015-sb phases=1 buses=[10549015.2,sec_10549015.2] conns=[wye,wye] kvs=[7.62,0.24] kvas=[15,15] taps=[1,1] wdg=1 %r=0.38195 rdcohms=12.56736 wdg=2 %r=0.38195 rdcohms=0.01246685 %loadloss=0.7639 %noloadloss=0.0851 xhl=2.1 emerghkva=21
new object=transformer.10549309-sb phases=1 buses=[10549309.2,sec_10549309.2] conns=[wye,wye] kvs=[7.62,0.24] kvas=[37.5,37.5] taps=[1,1] wdg=1 %r=0.38195 rdcohms=5.026945 wdg=2 %r=0.38195 rdcohms=0.004986739 %loadloss=0.7639 %noloadloss=0.0851 xhl=2.1 emerghkva=51.8
new object=transformer.10549313-sb phases=1 buses=[10549313.2,sec_10549313.2] conns=[wye,wye] kvs=[7.62,0.24] kvas=[15,15] taps=[1,1] wdg=1 %r=0.4055 rdcohms=13.34223 wdg=2 %r=0.4055 rdcohms=0.01323552 %loadloss=0.811 %noloadloss=0.184 xhl=1.765 emerghkva=21
new object=transformer.10522508-sb phases=1 buses=[10522508.2,sec_10522508.2] conns=[wye,wye] kvs=[7.62,0.24] kvas=[25,25] taps=[1,1] wdg=1 %r=0.504 rdcohms=9.949916 wdg=2 %r=0.504 rdcohms=0.009870336 %loadloss=1.008 %noloadloss=0.23 xhl=1.803 emerghkva=35
new object=transformer.34095668-sb phases=1 buses=[34095668.2,sec_34095668.2] conns=[wye,wye] kvs=[7.62,0.24] kvas=[25,25] taps=[1,1] wdg=1 %r=0.504 rdcohms=9.949916 wdg=2 %r=0.504 rdcohms=0.009870336 %loadloss=1.008 %noloadloss=0.23 xhl=1.803 emerghkva=35
new object=transformer.34086016-sb phases=1 buses=[34086016.2,sec_34086016.2] conns=[wye,wye] kvs=[7.62,0.24] kvas=[25,25] taps=[1,1] wdg=1 %r=0.38195 rdcohms=7.540417 wdg=2 %r=0.38195 rdcohms=0.007480109 %loadloss=0.7639 %noloadloss=0.0851 xhl=2.1 emerghkva=35
new object=transformer.10526702-sb phases=1 buses=[10526702.2,sec_10526702.2] conns=[wye,wye] kvs=[7.62,0.24] kvas=[15,15] taps=[1,1] wdg=1 %r=0.4055 rdcohms=13.34223 wdg=2 %r=0.4055 rdcohms=0.01323552 %loadloss=0.811 %noloadloss=0.184 xhl=1.765 emerghkva=21
new object=transformer.10549312-sb phases=1 buses=[10549312.2,sec_10549312.2] conns=[wye,wye] kvs=[7.62,0.24] kvas=[15,15] taps=[1,1] wdg=1 %r=0.504 rdcohms=16.58319 wdg=2 %r=0.504 rdcohms=0.01645056 %loadloss=1.008 %noloadloss=0.23 xhl=1.803 emerghkva=21
new object=transformer.10528321-sb phases=1 buses=[10528321.2,sec_10528321.2] conns=[wye,wye] kvs=[7.62,0.24] kvas=[15,15] taps=[1,1] wdg=1 %r=0.5765 rdcohms=18.96867 wdg=2 %r=0.5765 rdcohms=0.01881696 %loadloss=1.153 %noloadloss=0.318 xhl=1.888 emerghkva=21
new object=transformer.10549310-sb phases=1 buses=[10549310.2,sec_10549310.2] conns=[wye,wye] kvs=[7.62,0.24] kvas=[25,25] taps=[1,1] wdg=1 %r=0.38195 rdcohms=7.540417 wdg=2 %r=0.38195 rdcohms=0.007480109 %loadloss=0.7639 %noloadloss=0.0851 xhl=2.1 emerghkva=35
new object=transformer.10543795-sc phases=1 buses=[10543795.3,sec_10543795.3] conns=[wye,wye] kvs=[7.62,0.24] kvas=[15,15] taps=[1,1] wdg=1 %r=0.504 rdcohms=16.58319 wdg=2 %r=0.504 rdcohms=0.01645056 %loadloss=1.008 %noloadloss=0.23 xhl=1.803 emerghkva=21
new object=transformer.10559587-sc phases=1 buses=[10559587.3,sec_10559587.3] conns=[wye,wye] kvs=[7.62,0.24] kvas=[50,50] taps=[1,1] wdg=1 %r=0.4055 rdcohms=4.002669 wdg=2 %r=0.4055 rdcohms=0.003970656 %loadloss=0.811 %noloadloss=0.184 xhl=1.765 emerghkva=70
new object=transformer.10559589-sc phases=1 buses=[10559589.3,sec_10559589.3] conns=[wye,wye] kvs=[7.62,0.24] kvas=[25,25] taps=[1,1] wdg=1 %r=0.504 rdcohms=9.949916 wdg=2 %r=0.504 rdcohms=0.009870336 %loadloss=1.008 %noloadloss=0.23 xhl=1.803 emerghkva=35
new object=transformer.10559588-sc phases=1 buses=[10559588.3,sec_10559588.3] conns=[wye,wye] kvs=[7.62,0.24] kvas=[37.5,37.5] taps=[1,1] wdg=1 %r=0.38195 rdcohms=5.026945 wdg=2 %r=0.38195 rdcohms=0.004986739 %loadloss=0.7639 %noloadloss=0.0851 xhl=2.1 emerghkva=51.8
new object=transformer.10545431-sa phases=1 buses=[10545431.1,sec_10545431.1] conns=[wye,wye] kvs=[7.62,0.24] kvas=[25,25] taps=[1,1] wdg=1 %r=0.504 rdcohms=9.949916 wdg=2 %r=0.504 rdcohms=0.009870336 %loadloss=1.008 %noloadloss=0.23 xhl=1.803 emerghkva=35
new object=transformer.34085493-sa phases=1 buses=[34085493.1,sec_34085493.1] conns=[wye,wye] kvs=[7.62,0.24] kvas=[37.5,37.5] taps=[1,1] wdg=1 %r=0.511 rdcohms=6.725406 wdg=2 %r=0.511 rdcohms=0.006671616 %loadloss=1.022 %noloadloss=0.3221 xhl=1.707 emerghkva=51.8
new object=transformer.10545502-sa phases=1 buses=[10545502.1,sec_10545502.1] conns=[wye,wye] kvs=[7.62,0.24] kvas=[50,50] taps=[1,1] wdg=1 %r=0.369 rdcohms=3.64238 wdg=2 %r=0.369 rdcohms=0.003613248 %loadloss=0.738 %noloadloss=0.1987 xhl=1.7532 emerghkva=70
new object=transformer.10545682-sa phases=1 buses=[10545682.1,sec_10545682.1] conns=[wye,wye] kvs=[7.62,0.24] kvas=[25,25] taps=[1,1] wdg=1 %r=0.38195 rdcohms=7.540417 wdg=2 %r=0.38195 rdcohms=0.007480109 %loadloss=0.7639 %noloadloss=0.0851 xhl=2.1 emerghkva=35
new object=transformer.34084952-sa phases=1 buses=[34084952.1,sec_34084952.1] conns=[wye,wye] kvs=[7.62,0.24] kvas=[50,50] taps=[1,1] wdg=1 %r=0.369 rdcohms=3.64238 wdg=2 %r=0.369 rdcohms=0.003613248 %loadloss=0.738 %noloadloss=0.1987 xhl=1.7532 emerghkva=70
new object=transformer.34084954-sb phases=1 buses=[34084954.2,sec_34084954.2] conns=[wye,wye] kvs=[7.62,0.24] kvas=[10,10] taps=[1,1] wdg=1 %r=0.5765 rdcohms=28.45301 wdg=2 %r=0.5765 rdcohms=0.02822544 %loadloss=1.153 %noloadloss=0.318 xhl=1.888 emerghkva=14
new object=transformer.34084953-sb phases=1 buses=[34084953.2,sec_34084953.2] conns=[wye,wye] kvs=[7.62,0.24] kvas=[25,25] taps=[1,1] wdg=1 %r=0.504 rdcohms=9.949916 wdg=2 %r=0.504 rdcohms=0.009870336 %loadloss=1.008 %noloadloss=0.23 xhl=1.803 emerghkva=35
new object=transformer.10579831-sb phases=1 buses=[10579831.2,sec_10579831.2] conns=[wye,wye] kvs=[7.62,0.24] kvas=[25,25] taps=[1,1] wdg=1 %r=0.504 rdcohms=9.949916 wdg=2 %r=0.504 rdcohms=0.009870336 %loadloss=1.008 %noloadloss=0.23 xhl=1.803 emerghkva=35
new object=transformer.10579830-sc phases=1 buses=[10579830.3,sec_10579830.3] conns=[wye,wye] kvs=[7.62,0.24] kvas=[15,15] taps=[1,1] wdg=1 %r=0.38195 rdcohms=12.56736 wdg=2 %r=0.38195 rdcohms=0.01246685 %loadloss=0.7639 %noloadloss=0.0851 xhl=2.1 emerghkva=21
new object=transformer.10579829-sc phases=1 buses=[10579829.3,sec_10579829.3] conns=[wye,wye] kvs=[7.62,0.24] kvas=[15,15] taps=[1,1] wdg=1 %r=0.38195 rdcohms=12.56736 wdg=2 %r=0.38195 rdcohms=0.01246685 %loadloss=0.7639 %noloadloss=0.0851 xhl=2.1 emerghkva=21
new object=transformer.10549293-sa phases=1 buses=[10549293.1,sec_10549293.1] conns=[wye,wye] kvs=[7.62,0.24] kvas=[25,25] taps=[1,1] wdg=1 %r=0.38195 rdcohms=7.540417 wdg=2 %r=0.38195 rdcohms=0.007480109 %loadloss=0.7639 %noloadloss=0.0851 xhl=2.1 emerghkva=35
new object=transformer.34084957-sa phases=1 buses=[34084957.1,sec_34084957.1] conns=[wye,wye] kvs=[7.62,0.24] kvas=[15,15] taps=[1,1] wdg=1 %r=0.38195 rdcohms=12.56736 wdg=2 %r=0.38195 rdcohms=0.01246685 %loadloss=0.7639 %noloadloss=0.0851 xhl=2.1 emerghkva=21
new object=transformer.10549294-sc phases=1 buses=[10549294.3,sec_10549294.3] conns=[wye,wye] kvs=[7.62,0.24] kvas=[37.5,37.5] taps=[1,1] wdg=1 %r=0.38195 rdcohms=5.026945 wdg=2 %r=0.38195 rdcohms=0.004986739 %loadloss=0.7639 %noloadloss=0.0851 xhl=2.1 emerghkva=51.8
new object=transformer.10549269-sc phases=1 buses=[10549269.3,sec_10549269.3] conns=[wye,wye] kvs=[7.62,0.24] kvas=[15,15] taps=[1,1] wdg=1 %r=0.504 rdcohms=16.58319 wdg=2 %r=0.504 rdcohms=0.01645056 %loadloss=1.008 %noloadloss=0.23 xhl=1.803 emerghkva=21
new object=transformer.34085442-sa phases=1 buses=[34085442.1,sec_34085442.1] conns=[wye,wye] kvs=[7.62,0.24] kvas=[37.5,37.5] taps=[1,1] wdg=1 %r=0.38195 rdcohms=5.026945 wdg=2 %r=0.38195 rdcohms=0.004986739 %loadloss=0.7639 %noloadloss=0.0851 xhl=2.1 emerghkva=51.8
new object=transformer.34085035-sa phases=1 buses=[34085035.1,sec_34085035.1] conns=[wye,wye] kvs=[7.62,0.24] kvas=[15,15] taps=[1,1] wdg=1 %r=0.4055 rdcohms=13.34223 wdg=2 %r=0.4055 rdcohms=0.01323552 %loadloss=0.811 %noloadloss=0.184 xhl=1.765 emerghkva=21
new object=transformer.10549290-sb phases=1 buses=[10549290.2,sec_10549290.2] conns=[wye,wye] kvs=[7.62,0.24] kvas=[37.5,37.5] taps=[1,1] wdg=1 %r=0.504 rdcohms=6.633277 wdg=2 %r=0.504 rdcohms=0.006580224 %loadloss=1.008 %noloadloss=0.23 xhl=1.803 emerghkva=51.8
new object=transformer.34085312-sa phases=1 buses=[34085312.1,sec_34085312.1] conns=[wye,wye] kvs=[7.62,0.24] kvas=[25,25] taps=[1,1] wdg=1 %r=0.504 rdcohms=9.949916 wdg=2 %r=0.504 rdcohms=0.009870336 %loadloss=1.008 %noloadloss=0.23 xhl=1.803 emerghkva=35
new object=transformer.10549276-sa phases=1 buses=[10549276.1,sec_10549276.1] conns=[wye,wye] kvs=[7.62,0.24] kvas=[25,25] taps=[1,1] wdg=1 %r=0.38195 rdcohms=7.540417 wdg=2 %r=0.38195 rdcohms=0.007480109 %loadloss=0.7639 %noloadloss=0.0851 xhl=2.1 emerghkva=35
new object=transformer.34085036-sa phases=1 buses=[34085036.1,sec_34085036.1] conns=[wye,wye] kvs=[7.62,0.24] kvas=[25,25] taps=[1,1] wdg=1 %r=0.38195 rdcohms=7.540417 wdg=2 %r=0.38195 rdcohms=0.007480109 %loadloss=0.7639 %noloadloss=0.0851 xhl=2.1 emerghkva=35
new object=transformer.10549278-sa phases=1 buses=[10549278.1,sec_10549278.1] conns=[wye,wye] kvs=[7.62,0.24] kvas=[15,15] taps=[1,1] wdg=1 %r=0.504 rdcohms=16.58319 wdg=2 %r=0.504 rdcohms=0.01645056 %loadloss=1.008 %noloadloss=0.23 xhl=1.803 emerghkva=21
new object=transformer.34085044-sb phases=1 buses=[34085044.2,sec_34085044.2] conns=[wye,wye] kvs=[7.62,0.24] kvas=[15,15] taps=[1,1] wdg=1 %r=0.38195 rdcohms=12.56736 wdg=2 %r=0.38195 rdcohms=0.01246685 %loadloss=0.7639 %noloadloss=0.0851 xhl=2.1 emerghkva=21
new object=transformer.34085045-sb phases=1 buses=[34085045.2,sec_34085045.2] conns=[wye,wye] kvs=[7.62,0.24] kvas=[10,10] taps=[1,1] wdg=1 %r=0.511 rdcohms=25.22027 wdg=2 %r=0.511 rdcohms=0.02501856 %loadloss=1.022 %noloadloss=0.3221 xhl=1.707 emerghkva=14
new object=transformer.34085046-sb phases=1 buses=[34085046.2,sec_34085046.2] conns=[wye,wye] kvs=[7.62,0.24] kvas=[15,15] taps=[1,1] wdg=1 %r=0.36185 rdcohms=11.90601 wdg=2 %r=0.36185 rdcohms=0.01181078 %loadloss=0.7237 %noloadloss=0.1524 xhl=2.1557 emerghkva=21
new object=transformer.10580378-sb phases=1 buses=[10580378.2,sec_10580378.2] conns=[wye,wye] kvs=[7.62,0.24] kvas=[15,15] taps=[1,1] wdg=1 %r=0.504 rdcohms=16.58319 wdg=2 %r=0.504 rdcohms=0.01645056 %loadloss=1.008 %noloadloss=0.23 xhl=1.803 emerghkva=21
new object=transformer.34085401-sb phases=1 buses=[34085401.2,sec_34085401.2] conns=[wye,wye] kvs=[7.62,0.24] kvas=[25,25] taps=[1,1] wdg=1 %r=0.38195 rdcohms=7.540417 wdg=2 %r=0.38195 rdcohms=0.007480109 %loadloss=0.7639 %noloadloss=0.0851 xhl=2.1 emerghkva=35
new object=transformer.34085041-sa phases=1 buses=[34085041.1,sec_34085041.1] conns=[wye,wye] kvs=[7.62,0.24] kvas=[25,25] taps=[1,1] wdg=1 %r=0.504 rdcohms=9.949916 wdg=2 %r=0.504 rdcohms=0.009870336 %loadloss=1.008 %noloadloss=0.23 xhl=1.803 emerghkva=35
new object=transformer.34085040-sa phases=1 buses=[34085040.1,sec_34085040.1] conns=[wye,wye] kvs=[7.62,0.24] kvas=[25,25] taps=[1,1] wdg=1 %r=0.504 rdcohms=9.949916 wdg=2 %r=0.504 rdcohms=0.009870336 %loadloss=1.008 %noloadloss=0.23 xhl=1.803 emerghkva=35
new object=transformer.34085321-sa phases=1 buses=[34085321.1,sec_34085321.1] conns=[wye,wye] kvs=[7.62,0.24] kvas=[25,25] taps=[1,1] wdg=1 %r=0.38195 rdcohms=7.540417 wdg=2 %r=0.38195 rdcohms=0.007480109 %loadloss=0.7639 %noloadloss=0.0851 xhl=2.1 emerghkva=35
new object=transformer.34085042-sa phases=1 buses=[34085042.1,sec_34085042.1] conns=[wye,wye] kvs=[7.62,0.24] kvas=[37.5,37.5] taps=[1,1] wdg=1 %r=0.504 rdcohms=6.633277 wdg=2 %r=0.504 rdcohms=0.006580224 %loadloss=1.008 %noloadloss=0.23 xhl=1.803 emerghkva=51.8
new object=transformer.10579234-sa phases=1 buses=[10579234.1,sec_10579234.1] conns=[wye,wye] kvs=[7.62,0.24] kvas=[15,15] taps=[1,1] wdg=1 %r=0.38195 rdcohms=12.56736 wdg=2 %r=0.38195 rdcohms=0.01246685 %loadloss=0.7639 %noloadloss=0.0851 xhl=2.1 emerghkva=21
new object=transformer.34092154-sa phases=1 buses=[34092154.1,sec_34092154.1] conns=[wye,wye] kvs=[7.62,0.24] kvas=[15,15] taps=[1,1] wdg=1 %r=0.504 rdcohms=16.58319 wdg=2 %r=0.504 rdcohms=0.01645056 %loadloss=1.008 %noloadloss=0.23 xhl=1.803 emerghkva=21
new object=transformer.34086019-sa phases=1 buses=[34086019.1,sec_34086019.1] conns=[wye,wye] kvs=[7.62,0.24] kvas=[15,15] taps=[1,1] wdg=1 %r=0.369 rdcohms=12.14127 wdg=2 %r=0.369 rdcohms=0.01204416 %loadloss=0.738 %noloadloss=0.1987 xhl=1.7532 emerghkva=21
new object=transformer.40154810-sa phases=1 buses=[40154810.1,sec_40154810.1] conns=[wye,wye] kvs=[7.62,0.24] kvas=[15,15] taps=[1,1] wdg=1 %r=0.38195 rdcohms=12.56736 wdg=2 %r=0.38195 rdcohms=0.01246685 %loadloss=0.7639 %noloadloss=0.0851 xhl=2.1 emerghkva=21
new object=transformer.10579373-sa phases=1 buses=[10579373.1,sec_10579373.1] conns=[wye,wye] kvs=[7.62,0.24] kvas=[15,15] taps=[1,1] wdg=1 %r=0.4055 rdcohms=13.34223 wdg=2 %r=0.4055 rdcohms=0.01323552 %loadloss=0.811 %noloadloss=0.184 xhl=1.765 emerghkva=21
new object=transformer.10542412-sa phases=1 buses=[10542412.1,sec_10542412.1] conns=[wye,wye] kvs=[7.62,0.24] kvas=[15,15] taps=[1,1] wdg=1 %r=0.504 rdcohms=16.58319 wdg=2 %r=0.504 rdcohms=0.01645056 %loadloss=1.008 %noloadloss=0.23 xhl=1.803 emerghkva=21
new object=transformer.40156536-sa phases=1 buses=[40156536.1,sec_40156536.1] conns=[wye,wye] kvs=[7.62,0.24] kvas=[25,25] taps=[1,1] wdg=1 %r=0.38195 rdcohms=7.540417 wdg=2 %r=0.38195 rdcohms=0.007480109 %loadloss=0.7639 %noloadloss=0.0851 xhl=2.1 emerghkva=35
new object=transformer.20437314-sa phases=1 buses=[20437314.1,sec_20437314.1] conns=[wye,wye] kvs=[7.62,0.24] kvas=[15,15] taps=[1,1] wdg=1 %r=0.504 rdcohms=16.58319 wdg=2 %r=0.504 rdcohms=0.01645056 %loadloss=1.008 %noloadloss=0.23 xhl=1.803 emerghkva=21
new object=transformer.10579231-sa phases=1 buses=[10579231.1,sec_10579231.1] conns=[wye,wye] kvs=[7.62,0.24] kvas=[15,15] taps=[1,1] wdg=1 %r=0.38195 rdcohms=12.56736 wdg=2 %r=0.38195 rdcohms=0.01246685 %loadloss=0.7639 %noloadloss=0.0851 xhl=2.1 emerghkva=21
new object=transformer.10556735-sa phases=1 buses=[10556735.1,sec_10556735.1] conns=[wye,wye] kvs=[7.62,0.24] kvas=[25,25] taps=[1,1] wdg=1 %r=0.504 rdcohms=9.949916 wdg=2 %r=0.504 rdcohms=0.009870336 %loadloss=1.008 %noloadloss=0.23 xhl=1.803 emerghkva=35
new object=transformer.10556739-sa phases=1 buses=[10556739.1,sec_10556739.1] conns=[wye,wye] kvs=[7.62,0.24] kvas=[25,25] taps=[1,1] wdg=1 %r=0.38195 rdcohms=7.540417 wdg=2 %r=0.38195 rdcohms=0.007480109 %loadloss=0.7639 %noloadloss=0.0851 xhl=2.1 emerghkva=35
new object=transformer.10556736-sa phases=1 buses=[10556736.1,sec_10556736.1] conns=[wye,wye] kvs=[7.62,0.24] kvas=[15,15] taps=[1,1] wdg=1 %r=0.4055 rdcohms=13.34223 wdg=2 %r=0.4055 rdcohms=0.01323552 %loadloss=0.811 %noloadloss=0.184 xhl=1.765 emerghkva=21
new object=transformer.10579196-sa phases=1 buses=[10579196.1,sec_10579196.1] conns=[wye,wye] kvs=[7.62,0.24] kvas=[15,15] taps=[1,1] wdg=1 %r=0.4055 rdcohms=13.34223 wdg=2 %r=0.4055 rdcohms=0.01323552 %loadloss=0.811 %noloadloss=0.184 xhl=1.765 emerghkva=21
new object=transformer.10579185-sa phases=1 buses=[10579185.1,sec_10579185.1] conns=[wye,wye] kvs=[7.62,0.24] kvas=[15,15] taps=[1,1] wdg=1 %r=0.504 rdcohms=16.58319 wdg=2 %r=0.504 rdcohms=0.01645056 %loadloss=1.008 %noloadloss=0.23 xhl=1.803 emerghkva=21
new object=transformer.10549287-sb phases=1 buses=[10549287.2,sec_10549287.2] conns=[wye,wye] kvs=[7.62,0.24] kvas=[25,25] taps=[1,1] wdg=1 %r=0.504 rdcohms=9.949916 wdg=2 %r=0.504 rdcohms=0.009870336 %loadloss=1.008 %noloadloss=0.23 xhl=1.803 emerghkva=35
new object=transformer.10549286-sb phases=1 buses=[10549286.2,sec_10549286.2] conns=[wye,wye] kvs=[7.62,0.24] kvas=[25,25] taps=[1,1] wdg=1 %r=0.38195 rdcohms=7.540417 wdg=2 %r=0.38195 rdcohms=0.007480109 %loadloss=0.7639 %noloadloss=0.0851 xhl=2.1 emerghkva=35
new object=transformer.10549285-sb phases=1 buses=[10549285.2,sec_10549285.2] conns=[wye,wye] kvs=[7.62,0.24] kvas=[25,25] taps=[1,1] wdg=1 %r=0.38195 rdcohms=7.540417 wdg=2 %r=0.38195 rdcohms=0.007480109 %loadloss=0.7639 %noloadloss=0.0851 xhl=2.1 emerghkva=35
new object=transformer.34085047-sc phases=1 buses=[34085047.3,sec_34085047.3] conns=[wye,wye] kvs=[7.62,0.24] kvas=[15,15] taps=[1,1] wdg=1 %r=0.38195 rdcohms=12.56736 wdg=2 %r=0.38195 rdcohms=0.01246685 %loadloss=0.7639 %noloadloss=0.0851 xhl=2.1 emerghkva=21
new object=transformer.10549289-sc phases=1 buses=[10549289.3,sec_10549289.3] conns=[wye,wye] kvs=[7.62,0.24] kvas=[15,15] taps=[1,1] wdg=1 %r=0.38195 rdcohms=12.56736 wdg=2 %r=0.38195 rdcohms=0.01246685 %loadloss=0.7639 %noloadloss=0.0851 xhl=2.1 emerghkva=21
new object=transformer.34085048-sc phases=1 buses=[34085048.3,sec_34085048.3] conns=[wye,wye] kvs=[7.62,0.24] kvas=[10,10] taps=[1,1] wdg=1 %r=0.511 rdcohms=25.22027 wdg=2 %r=0.511 rdcohms=0.02501856 %loadloss=1.022 %noloadloss=0.3221 xhl=1.707 emerghkva=14
new object=transformer.34085263-sb phases=1 buses=[34085263.2,sec_34085263.2] conns=[wye,wye] kvs=[7.62,0.24] kvas=[25,25] taps=[1,1] wdg=1 %r=0.38195 rdcohms=7.540417 wdg=2 %r=0.38195 rdcohms=0.007480109 %loadloss=0.7639 %noloadloss=0.0851 xhl=2.1 emerghkva=35
new object=transformer.34085264-sb phases=1 buses=[34085264.2,sec_34085264.2] conns=[wye,wye] kvs=[7.62,0.24] kvas=[25,25] taps=[1,1] wdg=1 %r=0.38195 rdcohms=7.540417 wdg=2 %r=0.38195 rdcohms=0.007480109 %loadloss=0.7639 %noloadloss=0.0851 xhl=2.1 emerghkva=35
new object=transformer.10579847-sb phases=1 buses=[10579847.2,sec_10579847.2] conns=[wye,wye] kvs=[7.62,0.24] kvas=[15,15] taps=[1,1] wdg=1 %r=0.4055 rdcohms=13.34223 wdg=2 %r=0.4055 rdcohms=0.01323552 %loadloss=0.811 %noloadloss=0.184 xhl=1.765 emerghkva=21
new object=transformer.34085262-sb phases=1 buses=[34085262.2,sec_34085262.2] conns=[wye,wye] kvs=[7.62,0.24] kvas=[37.5,37.5] taps=[1,1] wdg=1 %r=0.38195 rdcohms=5.026945 wdg=2 %r=0.38195 rdcohms=0.004986739 %loadloss=0.7639 %noloadloss=0.0851 xhl=2.1 emerghkva=51.8
new object=transformer.34095665-sb phases=1 buses=[34095665.2,sec_34095665.2] conns=[wye,wye] kvs=[7.62,0.24] kvas=[37.5,37.5] taps=[1,1] wdg=1 %r=0.504 rdcohms=6.633277 wdg=2 %r=0.504 rdcohms=0.006580224 %loadloss=1.008 %noloadloss=0.23 xhl=1.803 emerghkva=51.8
new object=transformer.34085260-sb phases=1 buses=[34085260.2,sec_34085260.2] conns=[wye,wye] kvs=[7.62,0.24] kvas=[25,25] taps=[1,1] wdg=1 %r=0.38195 rdcohms=7.540417 wdg=2 %r=0.38195 rdcohms=0.007480109 %loadloss=0.7639 %noloadloss=0.0851 xhl=2.1 emerghkva=35
new object=transformer.10549266-sb phases=1 buses=[10549266.2,sec_10549266.2] conns=[wye,wye] kvs=[7.62,0.24] kvas=[15,15] taps=[1,1] wdg=1 %r=0.4055 rdcohms=13.34223 wdg=2 %r=0.4055 rdcohms=0.01323552 %loadloss=0.811 %noloadloss=0.184 xhl=1.765 emerghkva=21
new object=transformer.10573328-sc phases=1 buses=[10573328.3,sec_10573328.3] conns=[wye,wye] kvs=[7.62,0.24] kvas=[15,15] taps=[1,1] wdg=1 %r=0.504 rdcohms=16.58319 wdg=2 %r=0.504 rdcohms=0.01645056 %loadloss=1.008 %noloadloss=0.23 xhl=1.803 emerghkva=21
new object=transformer.34085340-sc phases=1 buses=[34085340.3,sec_34085340.3] conns=[wye,wye] kvs=[7.62,0.24] kvas=[37.5,37.5] taps=[1,1] wdg=1 %r=0.38195 rdcohms=5.026945 wdg=2 %r=0.38195 rdcohms=0.004986739 %loadloss=0.7639 %noloadloss=0.0851 xhl=2.1 emerghkva=51.8
new object=transformer.10573495-sc phases=1 buses=[10573495.3,sec_10573495.3] conns=[wye,wye] kvs=[7.62,0.24] kvas=[25,25] taps=[1,1] wdg=1 %r=0.504 rdcohms=9.949916 wdg=2 %r=0.504 rdcohms=0.009870336 %loadloss=1.008 %noloadloss=0.23 xhl=1.803 emerghkva=35
new object=transformer.10579845-sc phases=1 buses=[10579845.3,sec_10579845.3] conns=[wye,wye] kvs=[7.62,0.24] kvas=[10,10] taps=[1,1] wdg=1 %r=0.511 rdcohms=25.22027 wdg=2 %r=0.511 rdcohms=0.02501856 %loadloss=1.022 %noloadloss=0.3221 xhl=1.707 emerghkva=14
new object=transformer.34084956-sb phases=1 buses=[34084956.2,sec_34084956.2] conns=[wye,wye] kvs=[7.62,0.24] kvas=[15,15] taps=[1,1] wdg=1 %r=0.504 rdcohms=16.58319 wdg=2 %r=0.504 rdcohms=0.01645056 %loadloss=1.008 %noloadloss=0.23 xhl=1.803 emerghkva=21
new object=transformer.10579833-sb phases=1 buses=[10579833.2,sec_10579833.2] conns=[wye,wye] kvs=[7.62,0.24] kvas=[25,25] taps=[1,1] wdg=1 %r=0.38195 rdcohms=7.540417 wdg=2 %r=0.38195 rdcohms=0.007480109 %loadloss=0.7639 %noloadloss=0.0851 xhl=2.1 emerghkva=35
new object=transformer.10579843-sc phases=1 buses=[10579843.3,sec_10579843.3] conns=[wye,wye] kvs=[7.62,0.24] kvas=[15,15] taps=[1,1] wdg=1 %r=0.4055 rdcohms=13.34223 wdg=2 %r=0.4055 rdcohms=0.01323552 %loadloss=0.811 %noloadloss=0.184 xhl=1.765 emerghkva=21
new object=transformer.10579840-sc phases=1 buses=[10579840.3,sec_10579840.3] conns=[wye,wye] kvs=[7.62,0.24] kvas=[25,25] taps=[1,1] wdg=1 %r=0.38195 rdcohms=7.540417 wdg=2 %r=0.38195 rdcohms=0.007480109 %loadloss=0.7639 %noloadloss=0.0851 xhl=2.1 emerghkva=35
new object=transformer.34095581-sb phases=1 buses=[34095581.2,sec_34095581.2] conns=[wye,wye] kvs=[7.62,0.24] kvas=[25,25] taps=[1,1] wdg=1 %r=0.504 rdcohms=9.949916 wdg=2 %r=0.504 rdcohms=0.009870336 %loadloss=1.008 %noloadloss=0.23 xhl=1.803 emerghkva=35
new object=transformer.10548940-sb phases=1 buses=[10548940.2,sec_10548940.2] conns=[wye,wye] kvs=[7.62,0.24] kvas=[15,15] taps=[1,1] wdg=1 %r=0.38195 rdcohms=12.56736 wdg=2 %r=0.38195 rdcohms=0.01246685 %loadloss=0.7639 %noloadloss=0.0851 xhl=2.1 emerghkva=21
new object=transformer.34095580-sb phases=1 buses=[34095580.2,sec_34095580.2] conns=[wye,wye] kvs=[7.62,0.24] kvas=[15,15] taps=[1,1] wdg=1 %r=0.38195 rdcohms=12.56736 wdg=2 %r=0.38195 rdcohms=0.01246685 %loadloss=0.7639 %noloadloss=0.0851 xhl=2.1 emerghkva=21
new object=transformer.34095655-sc phases=1 buses=[34095655.3,sec_34095655.3] conns=[wye,wye] kvs=[7.62,0.24] kvas=[25,25] taps=[1,1] wdg=1 %r=0.38195 rdcohms=7.540417 wdg=2 %r=0.38195 rdcohms=0.007480109 %loadloss=0.7639 %noloadloss=0.0851 xhl=2.1 emerghkva=35
new object=transformer.34085951-sc phases=1 buses=[34085951.3,sec_34085951.3] conns=[wye,wye] kvs=[7.62,0.24] kvas=[25,25] taps=[1,1] wdg=1 %r=0.504 rdcohms=9.949916 wdg=2 %r=0.504 rdcohms=0.009870336 %loadloss=1.008 %noloadloss=0.23 xhl=1.803 emerghkva=35
new object=transformer.10548939-sc phases=1 buses=[10548939.3,sec_10548939.3] conns=[wye,wye] kvs=[7.62,0.24] kvas=[25,25] taps=[1,1] wdg=1 %r=0.38195 rdcohms=7.540417 wdg=2 %r=0.38195 rdcohms=0.007480109 %loadloss=0.7639 %noloadloss=0.0851 xhl=2.1 emerghkva=35
new object=transformer.10549250-sa phases=1 buses=[10549250.1,sec_10549250.1] conns=[wye,wye] kvs=[7.62,0.24] kvas=[25,25] taps=[1,1] wdg=1 %r=0.38195 rdcohms=7.540417 wdg=2 %r=0.38195 rdcohms=0.007480109 %loadloss=0.7639 %noloadloss=0.0851 xhl=2.1 emerghkva=35
new object=transformer.10549245-sb phases=1 buses=[10549245.2,sec_10549245.2] conns=[wye,wye] kvs=[7.62,0.24] kvas=[25,25] taps=[1,1] wdg=1 %r=0.38195 rdcohms=7.540417 wdg=2 %r=0.38195 rdcohms=0.007480109 %loadloss=0.7639 %noloadloss=0.0851 xhl=2.1 emerghkva=35
new object=transformer.10559735-sc phases=1 buses=[10559735.3,sec_10559735.3] conns=[wye,wye] kvs=[7.62,0.24] kvas=[15,15] taps=[1,1] wdg=1 %r=0.38195 rdcohms=12.56736 wdg=2 %r=0.38195 rdcohms=0.01246685 %loadloss=0.7639 %noloadloss=0.0851 xhl=2.1 emerghkva=21
new object=transformer.34097396-sc phases=1 buses=[34097396.3,sec_34097396.3] conns=[wye,wye] kvs=[7.62,0.24] kvas=[25,25] taps=[1,1] wdg=1 %r=0.38195 rdcohms=7.540417 wdg=2 %r=0.38195 rdcohms=0.007480109 %loadloss=0.7639 %noloadloss=0.0851 xhl=2.1 emerghkva=35
new object=transformer.10558509-sb phases=1 buses=[10558509.2,sec_10558509.2] conns=[wye,wye] kvs=[7.62,0.24] kvas=[15,15] taps=[1,1] wdg=1 %r=0.504 rdcohms=16.58319 wdg=2 %r=0.504 rdcohms=0.01645056 %loadloss=1.008 %noloadloss=0.23 xhl=1.803 emerghkva=21
new object=transformer.10560616-sc phases=1 buses=[10560616.3,sec_10560616.3] conns=[wye,wye] kvs=[7.62,0.24] kvas=[15,15] taps=[1,1] wdg=1 %r=0.4055 rdcohms=13.34223 wdg=2 %r=0.4055 rdcohms=0.01323552 %loadloss=0.811 %noloadloss=0.184 xhl=1.765 emerghkva=21
new object=transformer.34086800-sc phases=1 buses=[34086800.3,sec_34086800.3] conns=[wye,wye] kvs=[7.62,0.24] kvas=[25,25] taps=[1,1] wdg=1 %r=0.504 rdcohms=9.949916 wdg=2 %r=0.504 rdcohms=0.009870336 %loadloss=1.008 %noloadloss=0.23 xhl=1.803 emerghkva=35
new object=transformer.10585091-sc phases=1 buses=[10585091.3,sec_10585091.3] conns=[wye,wye] kvs=[7.62,0.24] kvas=[25,25] taps=[1,1] wdg=1 %r=0.38195 rdcohms=7.540417 wdg=2 %r=0.38195 rdcohms=0.007480109 %loadloss=0.7639 %noloadloss=0.0851 xhl=2.1 emerghkva=35
new object=transformer.20251418-sc phases=1 buses=[20251418.3,sec_20251418.3] conns=[wye,wye] kvs=[7.62,0.24] kvas=[25,25] taps=[1,1] wdg=1 %r=0.38195 rdcohms=7.540417 wdg=2 %r=0.38195 rdcohms=0.007480109 %loadloss=0.7639 %noloadloss=0.0851 xhl=2.1 emerghkva=35
new object=transformer.20251419-sc phases=1 buses=[20251419.3,sec_20251419.3] conns=[wye,wye] kvs=[7.62,0.24] kvas=[15,15] taps=[1,1] wdg=1 %r=0.504 rdcohms=16.58319 wdg=2 %r=0.504 rdcohms=0.01645056 %loadloss=1.008 %noloadloss=0.23 xhl=1.803 emerghkva=21
new object=transformer.10560618-sc phases=1 buses=[10560618.3,sec_10560618.3] conns=[wye,wye] kvs=[7.62,0.24] kvas=[25,25] taps=[1,1] wdg=1 %r=0.504 rdcohms=9.949916 wdg=2 %r=0.504 rdcohms=0.009870336 %loadloss=1.008 %noloadloss=0.23 xhl=1.803 emerghkva=35
new object=transformer.10558557-sc phases=1 buses=[10558557.3,sec_10558557.3] conns=[wye,wye] kvs=[7.62,0.24] kvas=[50,50] taps=[1,1] wdg=1 %r=0.4055 rdcohms=4.002669 wdg=2 %r=0.4055 rdcohms=0.003970656 %loadloss=0.811 %noloadloss=0.184 xhl=1.765 emerghkva=70
new object=transformer.34096116-sb phases=1 buses=[34096116.2,sec_34096116.2] conns=[wye,wye] kvs=[7.62,0.24] kvas=[25,25] taps=[1,1] wdg=1 %r=0.504 rdcohms=9.949916 wdg=2 %r=0.504 rdcohms=0.009870336 %loadloss=1.008 %noloadloss=0.23 xhl=1.803 emerghkva=35
new object=transformer.10558646-sb phases=1 buses=[10558646.2,sec_10558646.2] conns=[wye,wye] kvs=[7.62,0.24] kvas=[25,25] taps=[1,1] wdg=1 %r=0.504 rdcohms=9.949916 wdg=2 %r=0.504 rdcohms=0.009870336 %loadloss=1.008 %noloadloss=0.23 xhl=1.803 emerghkva=35
new object=transformer.34096115-sb phases=1 buses=[34096115.2,sec_34096115.2] conns=[wye,wye] kvs=[7.62,0.24] kvas=[15,15] taps=[1,1] wdg=1 %r=0.504 rdcohms=16.58319 wdg=2 %r=0.504 rdcohms=0.01645056 %loadloss=1.008 %noloadloss=0.23 xhl=1.803 emerghkva=21
new object=transformer.34086415-sc phases=1 buses=[34086415.3,sec_34086415.3] conns=[wye,wye] kvs=[7.62,0.24] kvas=[15,15] taps=[1,1] wdg=1 %r=0.38195 rdcohms=12.56736 wdg=2 %r=0.38195 rdcohms=0.01246685 %loadloss=0.7639 %noloadloss=0.0851 xhl=2.1 emerghkva=21
new object=transformer.20494026-sc phases=1 buses=[20494026.3,sec_20494026.3] conns=[wye,wye] kvs=[7.62,0.24] kvas=[15,15] taps=[1,1] wdg=1 %r=0.4055 rdcohms=13.34223 wdg=2 %r=0.4055 rdcohms=0.01323552 %loadloss=0.811 %noloadloss=0.184 xhl=1.765 emerghkva=21
new object=transformer.20494025-sc phases=1 buses=[20494025.3,sec_20494025.3] conns=[wye,wye] kvs=[7.62,0.24] kvas=[25,25] taps=[1,1] wdg=1 %r=0.38195 rdcohms=7.540417 wdg=2 %r=0.38195 rdcohms=0.007480109 %loadloss=0.7639 %noloadloss=0.0851 xhl=2.1 emerghkva=35
new object=transformer.10558565-sc phases=1 buses=[10558565.3,sec_10558565.3] conns=[wye,wye] kvs=[7.62,0.24] kvas=[15,15] taps=[1,1] wdg=1 %r=0.504 rdcohms=16.58319 wdg=2 %r=0.504 rdcohms=0.01645056 %loadloss=1.008 %noloadloss=0.23 xhl=1.803 emerghkva=21
new object=transformer.34086410-sb phases=1 buses=[34086410.2,sec_34086410.2] conns=[wye,wye] kvs=[7.62,0.24] kvas=[15,15] taps=[1,1] wdg=1 %r=0.36185 rdcohms=11.90601 wdg=2 %r=0.36185 rdcohms=0.01181078 %loadloss=0.7237 %noloadloss=0.1524 xhl=2.1557 emerghkva=21
new object=transformer.10558586-sa phases=1 buses=[10558586.1,sec_10558586.1] conns=[wye,wye] kvs=[7.62,0.24] kvas=[37.5,37.5] taps=[1,1] wdg=1 %r=0.38195 rdcohms=5.026945 wdg=2 %r=0.38195 rdcohms=0.004986739 %loadloss=0.7639 %noloadloss=0.0851 xhl=2.1 emerghkva=51.8
new object=transformer.34086400-sc phases=1 buses=[34086400.3,sec_34086400.3] conns=[wye,wye] kvs=[7.62,0.24] kvas=[15,15] taps=[1,1] wdg=1 %r=0.38195 rdcohms=12.56736 wdg=2 %r=0.38195 rdcohms=0.01246685 %loadloss=0.7639 %noloadloss=0.0851 xhl=2.1 emerghkva=21
new object=transformer.10558582-sc phases=1 buses=[10558582.3,sec_10558582.3] conns=[wye,wye] kvs=[7.62,0.24] kvas=[37.5,37.5] taps=[1,1] wdg=1 %r=0.4055 rdcohms=5.336893 wdg=2 %r=0.4055 rdcohms=0.005294208 %loadloss=0.811 %noloadloss=0.184 xhl=1.765 emerghkva=51.8
...


!!!reactor.dss
new object=reactor.t2_neutral bus1=k_lsb.4 bus2=k_lsb.0 phases=1 x=0.5 basefreq=60


!!!regcontrol.dss
new object=regcontrol.t2 transformer=t2 vreg=122 winding=2 tapwinding=2 band=3 ptratio=63.50852961 delay=30


!!!linecode.dss
new object=linecode.4/0_al_ug nphases=3 r1=0.0917 x1=0.028 r0=0.3861 x0=0.2678 normamps=232 units=kft
new object=linecode.1/0_triplex_3ph nphases=3 rmatrix=[0.20176167,0.01804955,0.01804955|0.01804955,0.20176167,0.01804955|0.01804955,0.01804955,0.20176167] xmatrix=[0.28577060,0.25445134,0.24648656|0.25445134,0.28577060,0.25445134|0.24648656,0.25445134,0.28577060] cmatrix=[15.00000000,-12.00000000,-12.00000000 |-12.00000000,15.00000000,-12.00000000 |-12.00000000,-12.00000000,15.00000000] normamps=202 emergamps=252.5 units=kft
new object=linecode.1/0_triplex_1ph normamps=202 emergamps=252.5 units=kft neutral=0 kron=n nphases=1 rmatrix=[0.25386817] xmatrix=[0.07582623] cmatrix=[15.00000000]
new object=linecode.unknown_750 nphases=3 rmatrix=[0.04437530,0.01804955,0.01804955|0.01804955,0.04437530,0.01804955|0.01804955,0.01804955,0.04437530] xmatrix=[0.26150996,0.24834508,0.24038031|0.24834508,0.26150996,0.24834508|0.24038031,0.24834508,0.26150996] cmatrix=[15.00000000,-12.00000000,-12.00000000 |-12.00000000,15.00000000,-12.00000000 |-12.00000000,-12.00000000,15.00000000] units=kft normamps=580 emergamps=725
new object=linecode.oh-1ph_1/0ar nphases=3 r1=0.53562 x1=0.54302 r0=0.86743 x0=1.3939 c1=9.421 c0=4.9579 units=km basefreq=60 normamps=301 emergamps=301
new object=linecode.oh-3ph_1/0ar nphases=3 r1=0.53562 x1=0.52009 r0=0.85066 x0=1.479 c1=9.9323 c0=4.4906 units=km basefreq=60 normamps=301 emergamps=301
new object=linecode.oh-2ph_1/0ar nphases=3 r1=0.53562 x1=0.55762 r0=0.84861 x0=1.4087 c1=9.1209 c0=4.8626 units=km basefreq=60 normamps=301 emergamps=301
new object=linecode.oh-3ph_4/0aa nphases=3 r1=0.2703 x1=0.42527 r0=0.49915 x0=1.2611 c1=10.567 c0=4.6457 units=km basefreq=60 normamps=498 emergamps=498
new object=linecode.oh-3ph_4ar nphases=3 r1=1.3515 x1=0.52295 r0=1.7493 x0=1.7101 c1=9.17 c0=4.2956 units=km basefreq=60 normamps=175 emergamps=175
new object=linecode.oh-1ph_4ar nphases=3 r1=1.3515 x1=0.54581 r0=1.7703 x0=1.6447 c1=8.7325 c0=4.7158 units=km basefreq=60 normamps=175 emergamps=175
new object=linecode.oh-3ph_397aa nphases=3 r1=0.14416 x1=0.39712 r0=0.37301 x0=1.233 c1=11.299 c0=4.7819 units=km basefreq=60 normamps=590 emergamps=590
new object=linecode.oh-1ph_6cu nphases=3 r1=1.3546 x1=0.5314 r0=1.7766 x0=1.6312 c1=8.1749 c0=4.5139 units=km basefreq=60 normamps=175 emergamps=175
new object=linecode.oh-3ph_795aa nphases=3 r1=0.073322 x1=0.37065 r0=0.30217 x0=1.2065 c1=12.158 c0=4.9291 units=km basefreq=60 normamps=900 emergamps=900
new object=linecode.oh-3ph_2cu nphases=3 r1=0.54811 x1=0.46926 r0=0.88415 x0=1.4168 c1=9.4113 c0=4.3584 units=km basefreq=60 normamps=304 emergamps=304
new object=linecode.ug-1ph_1/0urd nphases=3 r1=0.55774 x1=0.098425 r0=2.3622 x0=0.098425 c1=215.75 c0=215.75 units=km basefreq=60 normamps=155 emergamps=155
new object=linecode.ug-3ph_1/0urd nphases=3 r1=0.55774 x1=0.16404 r0=1.1483 x0=0.098425 c1=215.75 c0=215.75 units=km basefreq=60 normamps=155 emergamps=155


!!!spectrum.dss
new object=spectrum.default numharm=7 harmonic=(1,3,5,7,9,11,13) %mag=(100,33,20,14.000000000000002,11,9,7.0000000000000009) angle=(0,0,0,0,0,0,0)
new object=spectrum.defaultload numharm=7 harmonic=(1,3,5,7,9,11,13) %mag=(100,1.5,20,14.000000000000002,1,9,7.0000000000000009) angle=(0,180,180,180,180,180,180)
new object=spectrum.defaultgen numharm=7 harmonic=(1,3,5,7,9,11,13) %mag=(100,5,3,1.5,1,0.69999999999999996,0.5) angle=(0,0,0,0,0,0,0)
new object=spectrum.defaultvsource numharm=1 harmonic=(1) %mag=(100) angle=(0)
new object=spectrum.linear numharm=1 harmonic=(1) %mag=(100) angle=(0)
new object=spectrum.pwm6 numharm=13 harmonic=(1,3,5,7,9,11,13,15,17,19,21,23,25) %mag=(100,4.4000000000000004,76.5,62.700000000000003,2.8999999999999999,24.800000000000001,12.699999999999999,0.5,7.0999999999999996,8.4000000000000004,0.90000000000000013,4.4000000000000004,3.3000000000000003) angle=(-103,-5,28,-180,-33,-59,79,36,-253,-124,3,-30,86)
new object=spectrum.dc6 numharm=10 harmonic=(1,3,5,7,9,11,13,15,17,19) %mag=(100,1.2,33.600000000000001,1.6000000000000001,0.40000000000000002,8.6999999999999993,1.2,0.29999999999999999,4.5,1.3) angle=(-75,28,156,29,-91,49,54,148,-57,-46)


!!!tcc_curve.dss
new object=tcc_curve.a npts=5 c_array=[1,2.5,4.5,8,14] t_array=[0.15,0.07,0.05,0.045,0.045]
new object=tcc_curve.d npts=5 c_array=[1,2.5,4.5,8,14] t_array=[6,0.7,0.2,0.06,0.02]
new object=tcc_curve.tlink npts=7 c_array=[2,2.1,3,4,6,22,50] t_array=[300,100,10.1,4,1.4,0.1,0.02]
new object=tcc_curve.klink npts=6 c_array=[2,2.2,3,4,6,30] t_array=[300,20,4,1.3,0.41,0.02]
new object=tcc_curve.uv1547 npts=2 c_array=[0.5,0.9] t_array=[0.166,2]
new object=tcc_curve.ov1547 npts=2 c_array=[1.1,1.2] t_array=[2,0.166]
new object=tcc_curve.mod_inv npts=15 c_array=[1.1,1.3,1.5,2,3,4,5,6,7,8,9,10,20,50,100] t_array=[27.1053,9.9029,6.439,3.8032,2.4322,1.9458,1.6883,1.5255,1.4117,1.3267,1.2604,1.2068,0.9481,0.7468,0.6478]
new object=tcc_curve.very_inv npts=15 c_array=[1.1,1.3,1.5,2,3,4,5,6,7,8,9,10,20,50,100] t_array=[93.872,28.9113,16.179,7.0277,2.9423,1.7983,1.3081,1.0513,0.8995,0.8023,0.7361,0.6891,0.5401,0.4988,0.493]
new object=tcc_curve.ext_inv npts=15 c_array=[1.1,1.3,1.5,2,3,4,5,6,7,8,9,10,20,50,100] t_array=[134.407,40.9913,22.6817,9.5217,3.6467,2.0017,1.2967,0.9274,0.7092,0.5693,0.4742,0.4065,0.1924,0.133,0.1245]
new object=tcc_curve.definite npts=3 c_array=[1,1.001,100] t_array=[300,1,1]


!!!capacitor.dss


!!!capacitors.dss
new object=capacitor.10548920-1 bus1=10548920 kv=13.800000000000001 kvar=[300] conn=wye


!!!growthshape.dss
new object=growthshape.default npts=2 year=(1,20) mult=(1.0249999999999999,1.0249999999999999)


!!!line.dss
new object=line.k22_feeder bus1=k_lsb bus2=k22 phases=3 switch=true length=0.001 units=ft enabled=true


!!!branches.dss
new object=line.k21_feeder bus1=k_lsb.1.2.3.0 bus2=k21.1.2.3.0 phases=3 switch=true length=0.001 units=ft enabled=true
new object=line.oh_10580818 bus1=k21.1.2.3.0 bus2=10580818.1.2.3.0 length=61.43121 units=m linecode=oh-3ph_795aa seasons=1 ratings=[400] normamps=900 emergamps=900 phases=3 enabled=true
...